Stray ".ends" card: .ends
Questionable use of curly braces in "src={bzx84c6v8t}"
    Error: undefined symbol in: "[bzx84c6v8t]"
Questionable use of curly braces in "src={mmbz5248bt}"
    Error: undefined symbol in: "[mmbz5248bt]"
Circuit: * C:\Users\slow\Dropbox\RB16\VadderPlusPlus\084vadder_nextplusplus.asc

WARNING: Less than two connections to node CURMON.  This node is used by R2.
Instance "m:u5:111": Length shorter than recommended for a level 1 MOSFET.
Early termination of direct N-R iteration.
Direct Newton iteration failed to find .op point.  (Use ".option noopiter" to skip.)
Starting Gmin stepping
Gmin = 10
vernier = 0.5
vernier = 0.25
vernier = 0.125
Gmin = 5.5165
vernier = 0.0625
vernier = 0.03125
vernier = 0.015625
vernier = 0.0078125
Gmin = 5.49501
vernier = 0.00390625
vernier = 0.00195313
vernier = 0.000976563
vernier = 0.000488281
Gmin = 5.50104
Gmin = 0
Gmin stepping failed

Starting source stepping with srcstepmethod=0
Source Step = 3.0303%
Source Step = 33.3333%
vernier = 0.25
Source Step = 37.8788%
Source Step = 45.4545%
Source Step = 53.0303%
Source Step = 60.6061%
Source Step = 68.1818%
vernier = 0.375
Source Step = 79.1667%
Source Step = 90.5303%
Source stepping succeeded in finding the operating point.


Date: Tue Jul 10 21:43:16 2018
Total elapsed time: 0.837 seconds.

tnom = 27
temp = 27
method = modified trap
totiter = 2582
traniter = 508
tranpoints = 199
accept = 139
rejected = 60
matrix size = 118
fillins = 981
solver = Normal
Thread vector: 17.4/13.7[2] 4.1/3.5[2] 4.5/3.2[2] 1.1/1.7[1]  2592/500
Matrix Compiler1:    8269 opcodes  28.2/[13.0]/14.1
Matrix Compiler2: 26.77 KB object code size  5.3/3.8/[2.0]


